LAMMPS (2 Aug 2023)
units real

boundary p p p

neighbor 2.0 bin

neigh_modify every 1 delay 0 check yes

atom_style full

bond_style harmonic

angle_style harmonic

dihedral_style opls

improper_style cvff

pair_style hybrid lj/cut/coul/long 12 12

pair_modify mix geometric

kspace_style pppm 1e-5

special_bonds lj/coul 0.0 0.0 0.5

read_data data.lmp
Reading data file ...
  orthogonal box = (0 0 0) to (18.87 18.87 18.87)
  reading atoms ...
  600 atoms
  scanning bonds ...
  scanning angles ...
  scanning dihedrals ...
  reading bonds ...
  500 bonds
  reading angles ...
  700 angles
  reading dihedrals ...
  300 dihedrals
Finding 1-2 1-3 1-4 neighbors ...
     4 = max # of 1-2 neighbors
     3 = max # of 1-3 neighbors
     4 = max # of 1-4 neighbors
     5 = max # of special neighbors

pair_coeff 1 1 lj/cut/coul/long 0.030000 2.500000 # H00 H00

pair_coeff 2 2 lj/cut/coul/long 0.065999 3.500000 # C01 C01

pair_coeff 3 3 lj/cut/coul/long 0.030000 2.500000 # H02 H02

pair_coeff 4 4 lj/cut/coul/long 0.030000 2.500000 # H03 H03

pair_coeff 5 5 lj/cut/coul/long 0.170000 3.120000 # O04 O04

pair_coeff 6 6 lj/cut/coul/long 0.000000 0.000000 # H05 H05

fix SHAKE all shake 0.0001 20 0 b 1 2 3 5
Finding SHAKE clusters ...
     100 = # of size 2 clusters
       0 = # of size 3 clusters
     100 = # of size 4 clusters
       0 = # of frozen angles
  find clusters CPU = 0.000 seconds

velocity all create 298 298 dist gaussian

thermo_style custom step cpu etotal ke pe evdwl ecoul elong temp press vol density

thermo 1000

fix 1 all nvt temp 298 298 100 tchain 3 mtk yes

fix 2 all deform 1 x final 0.0 18.87 y final 0.0 18.87 z final 0.0 18.87 units box

run 10000
PPPM initialization ...
  G vector (1/distance) = 0.23406994
  grid = 10 10 10
  stencil order = 5
  estimated absolute RMS force accuracy = 0.0025903946
  estimated relative force accuracy = 7.8008965e-06
  3d grid and FFT values/proc = 4913 1000
Generated 15 of 15 mixed pair_coeff terms from geometric mixing rule
Step          CPU           TotEng         KinEng         PotEng         E_vdwl         E_coul         E_long          Temp          Press          Volume        Density
0   0              1115.1449      413.64304      701.50189     -51.533652      2840.3215     -2224.368       298            10972.137      6719.1711      0.79186833
Averages over the last 6 of 11 rows, steps 5000 to 10000:
TotEng KinEng PotEng E_vdwl E_coul E_long Temp Press Volume Density
675.037 409.548 265.489 -203.609 2405.22 -2245.04 295.05 814.841 6719.17 0.791868
Loop time of 35.9878 on 1 procs for 10000 steps with 600 atoms

unfix 1

unfix 2

timestep 1

fix 8 all nvt temp 298 298 200 tchain 3 mtk yes

fix kick all efield 0.10 0.0 0.0

restart 10000 MeOH-NVT-E1.restart1 MeOH-NVT-E1.restart2

dump d1 all custom 1000 traj-MeOH-NVT-E1.lmp element xu yu zu

dump_modify d1 element H C H H O H

dump_modify d1 sort id

run 10000
PPPM initialization ...
  G vector (1/distance) = 0.23406994
  grid = 10 10 10
  stencil order = 5
  estimated absolute RMS force accuracy = 0.0025903946
  estimated relative force accuracy = 7.8008965e-06
  3d grid and FFT values/proc = 4913 1000
Generated 15 of 15 mixed pair_coeff terms from geometric mixing rule
Step          CPU           TotEng         KinEng         PotEng         E_vdwl         E_coul         E_long          Temp          Press          Volume        Density
10000   0              644.69846      381.98652      262.71194     -207.25996      2403.0417     -2245.8854      275.19376     -314.11053      6719.1711      0.79186833
Averages over the last 6 of 11 rows, steps 15000 to 20000:
TotEng KinEng PotEng E_vdwl E_coul E_long Temp Press Volume Density
678.236 407.567 270.669 -206.492 2409.46 -2244.4 293.622 668.405 6719.17 0.791868
Loop time of 35.4917 on 1 procs for 10000 steps with 600 atoms

undump d1

unfix 8
