#--------------Initialize Simulation--------------------------
dimension	3
units           metal
atom_style      full

#--------------Create Atoms-----------------------------------
boundary 	p p p

read_data	data_3_layers_1x3.lammps
Reading data file ...
  orthogonal box = (-50 -50 -50) to (50 50 50)
  reading atoms ...
  480 atoms
Finding 1-2 1-3 1-4 neighbors ...
     0 = max # of 1-2 neighbors
     0 = max # of 1-3 neighbors
     0 = max # of 1-4 neighbors
     1 = max # of special neighbors
group 		gnp type 1
480 atoms in group gnp
fix		gnp gnp rigid single
  1 rigid bodies with 480 atoms
#neigh_modify	every 2 check yes delay 10 one 10000 page 100000

#--------------Define Interatomic Potential-------------------
pair_style airebo 3.0
pair_coeff * * CH.airebo C
Reading airebo potential file CH.airebo with DATE: 2011-10-25

compute 3 all pe/atom
compute 4 all stress/atom NULL pair

#---------Run the simulation for thermal equilibration--------
velocity all create 1 4928459 dist uniform
fix efield gnp efield 0.0 0.0 0.015
fix 1 all nvt temp 0.1 0.1 10
#fix 1 all npt temp 10 10 .4 x 0.0 0.0 .5 y 0.0 0.0 .5
set group gnp charge 0.1
Setting atom values ...
  480 settings made for charge
thermo 10

thermo_style custom step pe ke etotal temp lx ly lz press atoms

dump 1 all custom 25 dump.graphene_crumple_v2 id x y z vx vy vz q c_3 c_4[1] c_4[2] c_4[3]

timestep 0.001

fix bp all balance 250 1 shift z 10 1

thermo_style custom step temp ke pe press pxx pyy vol

variable runeq equal 5000

run 5000
Step          Temp          KinEng         PotEng         Press           Pxx            Pyy           Volume
0   0.43068698     5.5670662e-05 -3260.5743      38.37308       32.525205      113.26603      1000000
Averages over the last 251 of 501 rows, steps 2500 to 5000:
Temp KinEng PotEng Press Pxx Pyy Volume
42741.1 5.52472 -3260.86 3050.05 569.14 618.737 1e+06
Loop time of 17.1248 on 4 procs for 5000 steps with 480 atoms

#group graphene region graphene

#variable ymn equal ylo+4

#variable ymx equal yhi-4

#variable xmn equal xlo+4

#variable xmx equal xhi-4

#group middle region middle

#group edge subtract graphene middle
print "done"
done
quit
